<?xml version="1.0" encoding="UTF-8"?>

<!-- generated on 2021-12-15 16:37:14 by Eclipse SUMO netedit Version v1_11_0+0041-46d25eca05a
<configuration xmlns:xsi="http://www.w3.org/2001/XMLSchema-instance" xsi:noNamespaceSchemaLocation="http://sumo.dlr.de/xsd/netconvertConfiguration.xsd">

    <input>
        <sumo-net-file value="/data/HighD_Sim/inD/map_SUMO/inD_4.net.xml"/>
    </input>

    <output>
        <output-file value="/data/HighD_Sim/inD/map_SUMO/inD_4.net.xml"/>
    </output>

    <processing>
        <geometry.min-radius.fix.railways value="false"/>
        <geometry.max-grade.fix value="false"/>
        <offset.disable-normalization value="true"/>
        <lefthand value="false"/>
    </processing>

    <junctions>
        <no-turnarounds value="true"/>
        <junctions.corner-detail value="5"/>
        <junctions.limit-turn-speed value="5.5"/>
        <rectangular-lane-cut value="false"/>
    </junctions>

    <pedestrian>
        <walkingareas value="false"/>
    </pedestrian>

    <report>
        <aggregate-warnings value="5"/>
    </report>

</configuration>
-->

<net version="1.9" junctionCornerDetail="5" limitTurnSpeed="5.50" xmlns:xsi="http://www.w3.org/2001/XMLSchema-instance" xsi:noNamespaceSchemaLocation="http://sumo.dlr.de/xsd/net_file.xsd">

    <location netOffset="0.00,0.00" convBoundary="8.93,-60.63,85.30,-0.95" origBoundary="-10000000000.00,-10000000000.00,10000000000.00,10000000000.00" projParameter="!"/>

    <edge id=":J2_0" function="internal">
        <lane id=":J2_0_0" index="0" disallow="pedestrian tram rail_urban rail rail_electric rail_fast ship" speed="20.00" length="9.91" width="3.00" shape="46.23,-19.81 43.05,-20.65 40.39,-20.95 38.25,-20.72 36.63,-19.96"/>
    </edge>
    <edge id=":J2_1" function="internal">
        <lane id=":J2_1_0" index="0" disallow="pedestrian tram rail_urban rail rail_electric rail_fast ship" speed="20.00" length="23.00" width="3.00" shape="46.23,-19.81 41.68,-22.99 41.46,-27.47 44.50,-32.49 49.73,-37.29"/>
    </edge>
    <edge id=":J2_2" function="internal">
        <lane id=":J2_2_0" index="0" allow="bicycle" speed="20.00" length="13.22" width="1.50" shape="48.40,-26.01 38.18,-18.31"/>
        <lane id=":J2_2_1" index="1" disallow="pedestrian tram rail_urban rail rail_electric rail_fast ship" speed="20.00" length="13.22" width="3.00" shape="47.53,-28.18 36.63,-19.96"/>
    </edge>
    <edge id=":J2_4" function="internal">
        <lane id=":J2_4_0" index="0" disallow="pedestrian tram rail_urban rail rail_electric rail_fast ship" speed="20.00" length="20.44" width="3.00" shape="33.56,-24.79 49.73,-37.29"/>
    </edge>
    <edge id=":J2_5" function="internal">
        <lane id=":J2_5_0" index="0" disallow="pedestrian tram rail_urban rail rail_electric rail_fast ship" speed="20.00" length="4.11" width="2.80" shape="35.07,-22.41 37.26,-23.42 38.95,-23.58"/>
    </edge>
    <edge id=":J2_6" function="internal">
        <lane id=":J2_6_0" index="0" disallow="pedestrian tram rail_urban rail rail_electric rail_fast ship" speed="20.00" length="9.57" width="2.80" shape="38.95,-23.58 40.21,-23.70 43.90,-23.26 48.34,-22.08"/>
    </edge>
    <edge id=":J4_0" function="internal">
        <lane id=":J4_0_0" index="0" allow="bicycle" speed="20.00" length="11.58" shape="59.49,-34.86 58.39,-33.43 57.74,-31.10 57.55,-27.88 57.80,-23.76"/>
    </edge>
    <edge id=":J4_1" function="internal">
        <lane id=":J4_1_0" index="0" allow="bicycle" speed="20.00" length="7.72" width="1.50" shape="59.49,-34.86 53.58,-29.91"/>
    </edge>
    <edge id=":J4_2" function="internal">
        <lane id=":J4_2_0" index="0" disallow="pedestrian tram rail_urban rail rail_electric rail_fast ship" speed="20.00" length="1.73" shape="57.93,-36.26 57.07,-34.87 57.05,-34.77"/>
    </edge>
    <edge id=":J4_3" function="internal">
        <lane id=":J4_3_0" index="0" disallow="pedestrian tram rail_urban rail rail_electric rail_fast ship" speed="20.00" length="6.37" width="3.00" shape="57.93,-36.26 52.96,-32.26"/>
    </edge>
    <edge id=":J4_4" function="internal">
        <lane id=":J4_4_0" index="0" disallow="pedestrian tram rail_urban rail rail_electric rail_fast ship" speed="20.00" length="11.15" shape="57.05,-34.77 56.62,-32.32 56.58,-28.58 56.96,-23.67"/>
    </edge>
    <edge id=":J5_0" function="internal">
        <lane id=":J5_0_0" index="0" disallow="pedestrian tram rail_urban rail rail_electric rail_fast ship" speed="20.00" length="2.03" width="2.80" shape="63.37,-14.33 61.43,-14.95"/>
    </edge>
    <edge id=":J5_1" function="internal">
        <lane id=":J5_1_0" index="0" disallow="pedestrian tram rail_urban rail rail_electric rail_fast ship" speed="20.00" length="10.62" width="2.80" shape="56.97,-23.57 57.62,-21.46 59.09,-19.64 61.37,-18.13 64.48,-16.92"/>
    </edge>
    <edge id=":J5_2" function="internal">
        <lane id=":J5_2_0" index="0" disallow="pedestrian tram rail_urban rail rail_electric rail_fast ship" speed="20.00" length="6.17" width="2.80" shape="58.60,-18.79 64.48,-16.92"/>
    </edge>

    <edge id="1_main_0" from="J7" to="J4" priority="-1">
        <lane id="1_main_0_0" index="0" allow="bicycle" speed="20.00" length="34.83" width="1.50" shape="87.30,-55.49 59.49,-34.86"/>
        <lane id="1_main_0_1" index="1" disallow="pedestrian tram rail_urban rail rail_electric rail_fast ship" speed="20.00" length="34.83" width="2.60" shape="86.07,-57.14 57.93,-36.26"/>
    </edge>
    <edge id="1_main_1" from="J4" to="J2" priority="-1">
        <lane id="1_main_1_0" index="0" allow="bicycle" speed="20.00" length="6.64" width="1.50" shape="53.58,-29.91 48.40,-26.01"/>
        <lane id="1_main_1_1" index="1" disallow="pedestrian tram rail_urban rail rail_electric rail_fast ship" speed="20.00" length="6.64" width="3.00" shape="52.96,-32.26 47.53,-28.18"/>
    </edge>
    <edge id="1_main_2" from="J2" to="J1" priority="-1">
        <lane id="1_main_2_0" index="0" allow="bicycle" speed="20.00" length="33.68" width="1.50" shape="38.18,-18.31 11.19,2.04"/>
        <lane id="1_main_2_1" index="1" disallow="pedestrian tram rail_urban rail rail_electric rail_fast ship" speed="20.00" length="33.68" width="3.00" shape="36.63,-19.96 9.83,0.25"/>
    </edge>
    <edge id="1_sub_0" from="J5" to="J6" priority="-1">
        <lane id="1_sub_0_0" index="0" disallow="pedestrian tram rail_urban rail rail_electric rail_fast ship" speed="20.00" length="11.19" width="2.80" shape="64.48,-16.92 75.19,-13.70"/>
    </edge>
    <edge id="1_sub_1" from="J2" to="J5" priority="-1" shape="40.94,-25.09 44.43,-21.86 63.39,-15.79">
        <lane id="1_sub_1_0" index="0" disallow="pedestrian tram rail_urban rail rail_electric rail_fast ship" speed="20.00" length="10.77" width="2.80" shape="48.34,-22.08 58.60,-18.79"/>
    </edge>
    <edge id="1_sub_2" from="J4" to="J5" priority="-1" shape="57.16,-37.30 54.74,-29.42 55.45,-22.71 63.39,-15.79">
        <lane id="1_sub_2_0" index="0" disallow="pedestrian tram rail_urban rail rail_electric rail_fast ship" speed="20.00" length="0.10" shape="56.96,-23.67 56.97,-23.57"/>
    </edge>
    <edge id="2_main_0" from="J1" to="J2" priority="-1">
        <lane id="2_main_0_0" index="0" disallow="pedestrian tram rail_urban rail rail_electric rail_fast ship" speed="20.00" length="33.91" width="2.80" shape="6.40,-4.30 33.56,-24.79"/>
        <lane id="2_main_0_1" index="1" disallow="pedestrian tram rail_urban rail rail_electric rail_fast ship" speed="20.00" length="33.91" width="2.80" shape="8.09,-2.07 35.07,-22.41"/>
    </edge>
    <edge id="2_main_1" from="J2" to="J8" priority="-1" shape="40.94,-25.09 49.82,-35.49 83.62,-60.63">
        <lane id="2_main_1_0" index="0" disallow="pedestrian tram rail_urban rail rail_electric rail_fast ship" speed="20.00" length="41.12" width="3.00" shape="49.73,-37.29 82.72,-61.83"/>
    </edge>
    <edge id="2_sub_0" from="J6" to="J5" priority="-1">
        <lane id="2_sub_0_0" index="0" disallow="pedestrian tram rail_urban rail rail_electric rail_fast ship" speed="20.00" length="11.51" width="2.80" shape="74.39,-11.02 63.37,-14.33"/>
    </edge>
    <edge id="2_sub_1" from="J5" to="J2" priority="-1" shape="63.39,-15.79 44.43,-21.86 40.94,-25.09">
        <lane id="2_sub_1_0" index="0" disallow="pedestrian tram rail_urban rail rail_electric rail_fast ship" speed="20.00" length="15.96" width="2.80" shape="61.43,-14.95 46.23,-19.81"/>
    </edge>

    <junction id="J1" type="dead_end" x="8.93" y="-0.95" incLanes="1_main_2_0 1_main_2_1" intLanes="" shape="8.93,-0.95 11.64,2.64 8.93,-0.95"/>
    <junction id="J2" type="priority" x="40.94" y="-25.09" incLanes="2_sub_1_0 1_main_1_0 1_main_1_1 2_main_0_0 2_main_0_1" intLanes=":J2_0_0 :J2_1_0 :J2_2_0 :J2_2_1 :J2_4_0 :J2_6_0" shape="32.60,-26.30 37.54,-18.52 39.36,-17.93 41.19,-18.65 43.35,-18.85 45.06,-18.55 49.69,-23.54 48.64,-24.67 48.73,-25.18 46.94,-29.66 47.13,-30.61 47.58,-31.88 48.23,-33.14 49.28,-34.79 49.82,-35.49 49.64,-39.10" customShape="1">
        <request index="0" response="001100" foes="001100" cont="0"/>
        <request index="1" response="111100" foes="111100" cont="0"/>
        <request index="2" response="000000" foes="100011" cont="0"/>
        <request index="3" response="000000" foes="100011" cont="0"/>
        <request index="4" response="000000" foes="000010" cont="0"/>
        <request index="5" response="001100" foes="001110" cont="1"/>
    </junction>
    <junction id="J4" type="priority" x="57.16" y="-37.30" incLanes="1_main_0_0 1_main_0_1" intLanes=":J4_0_0 :J4_1_0 :J4_4_0 :J4_3_0" shape="55.45,-22.71 59.50,-25.30 59.24,-26.77 59.16,-28.43 59.35,-30.29 60.10,-32.58 60.85,-33.82 62.00,-35.04 59.06,-34.83 57.16,-37.30 52.56,-33.82 55.45,-22.71 56.00,-22.32" customShape="1">
        <request index="0" response="0000" foes="0100" cont="0"/>
        <request index="1" response="0000" foes="0100" cont="0"/>
        <request index="2" response="0011" foes="0011" cont="1"/>
        <request index="3" response="0000" foes="0000" cont="0"/>
    </junction>
    <junction id="J5" type="priority" x="63.39" y="-15.79" incLanes="2_sub_0_0 1_sub_2_0 1_sub_1_0" intLanes=":J5_0_0 :J5_1_0 :J5_2_0" shape="55.45,-22.71 56.00,-22.32 62.82,-13.06 65.33,-18.91 63.44,-19.91 62.20,-20.99 61.24,-21.90 60.43,-23.06 59.91,-24.11 59.50,-25.30" customShape="1">
        <request index="0" response="000" foes="000" cont="0"/>
        <request index="1" response="100" foes="100" cont="0"/>
        <request index="2" response="000" foes="010" cont="0"/>
    </junction>
    <junction id="J6" type="dead_end" x="74.79" y="-12.36" incLanes="1_sub_0_0" intLanes="" shape="74.79,-12.36 75.60,-15.04 74.79,-12.36"/>
    <junction id="J7" type="dead_end" x="85.30" y="-58.18" incLanes="" intLanes="" shape="85.30,-58.18 87.74,-54.89"/>
    <junction id="J8" type="dead_end" x="83.62" y="-60.63" incLanes="2_main_1_0" intLanes="" shape="81.83,-63.04 83.62,-60.63"/>

    <junction id=":J2_6_0" type="internal" x="38.95" y="-23.58" incLanes=":J2_5_0 1_main_1_0 1_main_1_1" intLanes=":J2_1_0 :J2_2_0 :J2_2_1"/>
    <junction id=":J4_4_0" type="internal" x="57.05" y="-34.77" incLanes=":J4_2_0 1_main_0_0" intLanes=":J4_0_0 :J4_1_0"/>

    <connection from="1_main_0" to="1_sub_2" fromLane="0" toLane="0" via=":J4_0_0" dir="R" state="M"/>
    <connection from="1_main_0" to="1_main_1" fromLane="0" toLane="0" via=":J4_1_0" dir="s" state="M"/>
    <connection from="1_main_0" to="1_sub_2" fromLane="1" toLane="0" via=":J4_2_0" dir="R" state="m"/>
    <connection from="1_main_0" to="1_main_1" fromLane="1" toLane="1" via=":J4_3_0" dir="s" state="M"/>
    <connection from="1_main_1" to="1_main_2" fromLane="0" toLane="0" via=":J2_2_0" dir="s" state="M"/>
    <connection from="1_main_1" to="1_main_2" fromLane="1" toLane="1" via=":J2_2_1" dir="s" state="M"/>
    <connection from="1_sub_1" to="1_sub_0" fromLane="0" toLane="0" via=":J5_2_0" dir="s" state="M"/>
    <connection from="1_sub_2" to="1_sub_0" fromLane="0" toLane="0" via=":J5_1_0" dir="s" state="m"/>
    <connection from="2_main_0" to="2_main_1" fromLane="0" toLane="0" via=":J2_4_0" dir="s" state="M"/>
    <connection from="2_main_0" to="1_sub_1" fromLane="1" toLane="0" via=":J2_5_0" dir="l" state="m"/>
    <connection from="2_sub_0" to="2_sub_1" fromLane="0" toLane="0" via=":J5_0_0" dir="s" state="M"/>
    <connection from="2_sub_1" to="1_main_2" fromLane="0" toLane="1" via=":J2_0_0" dir="r" state="m"/>
    <connection from="2_sub_1" to="2_main_1" fromLane="0" toLane="0" via=":J2_1_0" dir="l" state="m"/>

    <connection from=":J2_0" to="1_main_2" fromLane="0" toLane="1" dir="r" state="M"/>
    <connection from=":J2_1" to="2_main_1" fromLane="0" toLane="0" dir="l" state="M"/>
    <connection from=":J2_2" to="1_main_2" fromLane="0" toLane="0" dir="s" state="M"/>
    <connection from=":J2_2" to="1_main_2" fromLane="1" toLane="1" dir="s" state="M"/>
    <connection from=":J2_4" to="2_main_1" fromLane="0" toLane="0" dir="s" state="M"/>
    <connection from=":J2_5" to="1_sub_1" fromLane="0" toLane="0" via=":J2_6_0" dir="l" state="m"/>
    <connection from=":J2_6" to="1_sub_1" fromLane="0" toLane="0" dir="l" state="M"/>
    <connection from=":J4_0" to="1_sub_2" fromLane="0" toLane="0" dir="R" state="M"/>
    <connection from=":J4_1" to="1_main_1" fromLane="0" toLane="0" dir="s" state="M"/>
    <connection from=":J4_2" to="1_sub_2" fromLane="0" toLane="0" via=":J4_4_0" dir="R" state="m"/>
    <connection from=":J4_4" to="1_sub_2" fromLane="0" toLane="0" dir="R" state="M"/>
    <connection from=":J4_3" to="1_main_1" fromLane="0" toLane="1" dir="s" state="M"/>
    <connection from=":J5_0" to="2_sub_1" fromLane="0" toLane="0" dir="s" state="M"/>
    <connection from=":J5_1" to="1_sub_0" fromLane="0" toLane="0" dir="s" state="M"/>
    <connection from=":J5_2" to="1_sub_0" fromLane="0" toLane="0" dir="s" state="M"/>

</net>
