<?xml version="1.0" encoding="UTF-8"?>

<!-- generated on 2021-12-28 18:31:55 by Eclipse SUMO netedit Version v1_11_0+0041-46d25eca05a
<configuration xmlns:xsi="http://www.w3.org/2001/XMLSchema-instance" xsi:noNamespaceSchemaLocation="http://sumo.dlr.de/xsd/netconvertConfiguration.xsd">

    <input>
        <sumo-net-file value="/data/HighD_Sim/inD/map_SUMO/inD_1.net.xml"/>
    </input>

    <output>
        <output-file value="/data/HighD_Sim/inD/map_SUMO/inD_1.net.xml"/>
    </output>

    <processing>
        <geometry.min-radius.fix.railways value="false"/>
        <geometry.max-grade.fix value="false"/>
        <offset.disable-normalization value="true"/>
        <lefthand value="false"/>
    </processing>

    <junctions>
        <no-turnarounds value="true"/>
        <junctions.corner-detail value="5"/>
        <junctions.limit-turn-speed value="5.5"/>
        <rectangular-lane-cut value="false"/>
    </junctions>

    <pedestrian>
        <walkingareas value="false"/>
    </pedestrian>

    <report>
        <aggregate-warnings value="5"/>
    </report>

</configuration>
-->

<net version="1.9" junctionCornerDetail="5" limitTurnSpeed="5.50" xmlns:xsi="http://www.w3.org/2001/XMLSchema-instance" xsi:noNamespaceSchemaLocation="http://sumo.dlr.de/xsd/net_file.xsd">

    <location netOffset="-295557.06,-5627970.51" convBoundary="55.73,-106.90,185.22,-12.25" origBoundary="6.100416,50.764540,6.104525,50.769408" projParameter="+proj=utm +zone=32 +ellps=WGS84 +datum=WGS84 +units=m +no_defs"/>

    <edge id=":J0_0" function="internal">
        <lane id=":J0_0_0" index="0" allow="private emergency authority army vip passenger hov taxi bus coach delivery truck trailer evehicle custom1 custom2" speed="20.00" length="16.65" width="3.60" shape="127.14,-74.58 142.37,-67.88"/>
        <lane id=":J0_0_1" index="1" allow="private emergency authority army vip passenger hov taxi bus coach delivery truck trailer evehicle custom1 custom2" speed="20.00" length="16.65" width="3.60" shape="126.51,-70.92 141.76,-64.22"/>
    </edge>
    <edge id=":J0_2" function="internal">
        <lane id=":J0_2_0" index="0" allow="private emergency authority army vip passenger hov taxi bus coach delivery truck trailer evehicle custom1 custom2" speed="20.00" length="31.82" shape="126.51,-70.92 133.13,-66.89 138.26,-61.39 141.89,-54.43 144.04,-46.00"/>
    </edge>
    <edge id=":J1_0" function="internal">
        <lane id=":J1_0_0" index="0" allow="private emergency authority army vip passenger hov taxi bus coach delivery truck trailer evehicle custom1 custom2" speed="20.00" length="17.70" width="3.60" shape="142.56,-67.80 159.26,-60.42"/>
        <lane id=":J1_0_1" index="1" allow="private emergency authority army vip passenger hov taxi bus coach delivery truck trailer evehicle custom1 custom2" speed="20.00" length="17.70" width="3.60" shape="141.94,-64.14 157.62,-57.21"/>
    </edge>
    <edge id=":J1_2" function="internal">
        <lane id=":J1_2_0" index="0" allow="private emergency authority army vip passenger hov taxi bus coach delivery truck trailer evehicle custom1 custom2" speed="20.00" length="33.03" width="3.60" shape="134.29,-45.21 136.03,-54.06 140.93,-58.89 148.34,-59.88 157.62,-57.21"/>
    </edge>
    <edge id=":J20_0" function="internal">
        <lane id=":J20_0_0" index="0" allow="private emergency authority army vip passenger hov taxi bus coach delivery truck trailer evehicle custom1 custom2" speed="20.00" length="26.35" width="3.60" shape="103.88,-70.20 80.49,-82.60"/>
        <lane id=":J20_0_1" index="1" allow="private emergency authority army vip passenger hov taxi bus coach delivery truck trailer evehicle custom1 custom2" speed="20.00" length="26.35" width="3.60" shape="105.35,-73.49 82.22,-85.75"/>
        <lane id=":J20_0_2" index="2" allow="private emergency authority army vip passenger hov taxi bus coach delivery truck trailer evehicle custom1 custom2" speed="20.00" length="26.35" width="3.60" shape="105.35,-73.49 99.92,-77.01 95.67,-80.57 90.91,-84.44 83.96,-88.91"/>
    </edge>
    <edge id=":J20_3" function="internal">
        <lane id=":J20_3_0" index="0" allow="private emergency authority army vip passenger hov taxi bus coach delivery truck trailer evehicle custom1 custom2" speed="20.00" length="25.04" width="3.60" shape="87.44,-95.21 109.50,-83.58"/>
        <lane id=":J20_3_1" index="1" allow="private emergency authority army vip passenger hov taxi bus coach delivery truck trailer evehicle custom1 custom2" speed="20.00" length="25.04" width="3.60" shape="85.70,-92.06 107.94,-80.33"/>
    </edge>
    <edge id=":J29_0" function="internal">
        <lane id=":J29_0_0" index="0" allow="private emergency authority army vip passenger hov taxi bus coach delivery truck trailer evehicle custom1 custom2" speed="20.00" length="21.90" width="3.60" shape="129.79,-46.54 128.23,-50.47 125.80,-54.89 122.04,-59.32 116.50,-63.30"/>
    </edge>
    <edge id=":J29_1" function="internal">
        <lane id=":J29_1_0" index="0" allow="private emergency authority army vip passenger hov taxi bus coach delivery truck trailer evehicle custom1 custom2" speed="20.00" length="16.21" width="3.60" shape="131.52,-56.56 127.01,-58.45 123.89,-59.69 120.84,-61.05 116.50,-63.30"/>
        <lane id=":J29_1_1" index="1" allow="private emergency authority army vip passenger hov taxi bus coach delivery truck trailer evehicle custom1 custom2" speed="20.00" length="16.21" width="3.60" shape="132.79,-59.94 128.42,-61.76 125.40,-62.96 122.44,-64.27 118.24,-66.45"/>
    </edge>
    <edge id=":J31_0" function="internal">
        <lane id=":J31_0_0" index="0" allow="private emergency authority army vip passenger hov taxi bus coach delivery truck trailer evehicle custom1 custom2" speed="20.00" length="4.54" shape="130.48,-41.63 130.38,-42.97 130.39,-43.91 130.31,-44.83 129.94,-46.11"/>
    </edge>
    <edge id=":J31_1" function="internal">
        <lane id=":J31_1_0" index="0" allow="private emergency authority army vip passenger hov taxi bus coach delivery truck trailer evehicle custom1 custom2" speed="20.00" length="4.47" shape="134.40,-40.62 134.26,-41.94 134.24,-42.85 134.27,-43.76 134.29,-45.08"/>
    </edge>
    <edge id=":J33_0" function="internal">
        <lane id=":J33_0_0" index="0" allow="private emergency authority army vip passenger hov taxi bus coach delivery truck trailer evehicle custom1 custom2" speed="9.47" length="30.00" shape="168.63,-40.76 163.50,-42.09 159.15,-41.78 155.59,-39.81 152.81,-36.20"/>
    </edge>
    <edge id=":J33_1" function="internal">
        <lane id=":J33_1_0" index="0" allow="private emergency authority army vip passenger hov taxi bus coach delivery truck trailer evehicle custom1 custom2" speed="20.00" length="16.72" width="3.60" shape="168.63,-40.76 151.52,-47.87"/>
        <lane id=":J33_1_1" index="1" allow="private emergency authority army vip passenger hov taxi bus coach delivery truck trailer evehicle custom1 custom2" speed="20.00" length="16.72" width="3.60" shape="166.74,-45.36 153.00,-51.15"/>
    </edge>
    <edge id=":J34_0" function="internal">
        <lane id=":J34_0_0" index="0" allow="private emergency authority army vip passenger hov taxi bus coach delivery truck trailer evehicle custom1 custom2" speed="7.33" length="1.98" width="6.70" shape="143.58,-18.99 145.50,-18.52"/>
    </edge>
    <edge id=":J34_1" function="internal">
        <lane id=":J34_1_0" index="0" allow="private emergency authority army vip passenger hov taxi bus coach delivery truck trailer evehicle custom1 custom2" speed="20.00" length="27.33" width="6.70" shape="144.07,-45.80 144.62,-40.16 145.09,-32.18 145.41,-24.20 145.50,-18.52"/>
    </edge>

    <edge id="1_main_0" from="J37" to="J33" priority="-1">
        <lane id="1_main_0_0" index="0" allow="private emergency authority army vip passenger hov taxi bus coach delivery truck trailer evehicle custom1 custom2" speed="20.00" length="15.28" width="3.60" shape="181.27,-35.84 168.63,-40.76"/>
        <lane id="1_main_0_1" index="1" allow="private emergency authority army vip passenger hov taxi bus coach delivery truck trailer evehicle custom1 custom2" speed="20.00" length="15.28" width="3.60" shape="182.58,-39.19 166.74,-45.36"/>
    </edge>
    <edge id="1_main_1" from="J33" to="J29" priority="-1" shape="165.80,-47.66 149.73,-54.50 120.54,-67.25">
        <lane id="1_main_1_0" index="0" allow="private emergency authority army vip passenger hov taxi bus coach delivery truck trailer evehicle custom1 custom2" speed="20.00" length="21.92" width="3.60" shape="151.52,-47.87 147.59,-49.54 131.52,-56.56"/>
        <lane id="1_main_1_1" index="1" allow="private emergency authority army vip passenger hov taxi bus coach delivery truck trailer evehicle custom1 custom2" speed="20.00" length="21.92" width="3.60" shape="153.00,-51.15 149.02,-52.85 132.79,-59.94"/>
    </edge>
    <edge id="1_main_2" from="J29" to="J20" priority="-1" shape="120.54,-67.25 105.85,-75.27 99.35,-79.08 88.38,-88.48">
        <lane id="1_main_2_0" index="0" allow="private emergency authority army vip passenger hov taxi bus coach delivery truck trailer evehicle custom1 custom2" speed="20.00" length="14.54" width="3.60" shape="116.50,-63.30 103.88,-70.20"/>
        <lane id="1_main_2_1" index="1" allow="private emergency authority army vip passenger hov taxi bus coach delivery truck trailer evehicle custom1 custom2" speed="20.00" length="14.54" width="3.60" shape="118.24,-66.45 105.35,-73.49"/>
    </edge>
    <edge id="1_main_3" from="J20" to="J21" priority="-1">
        <lane id="1_main_3_0" index="0" disallow="pedestrian tram rail_urban rail rail_electric rail_fast ship" speed="20.00" length="33.47" width="3.60" shape="80.49,-82.60 51.31,-99.06"/>
        <lane id="1_main_3_1" index="1" disallow="pedestrian tram rail_urban rail rail_electric rail_fast ship" speed="20.00" length="33.47" width="3.60" shape="82.22,-85.75 53.08,-102.20"/>
        <lane id="1_main_3_2" index="2" disallow="pedestrian tram rail_urban rail rail_electric rail_fast ship" speed="20.00" length="33.47" width="3.60" shape="83.96,-88.91 54.85,-105.33"/>
    </edge>
    <edge id="1_sub_0" from="J35" to="J31" priority="-1">
        <lane id="1_sub_0_0" index="0" allow="private emergency authority army vip passenger hov taxi bus coach delivery truck trailer evehicle custom1 custom2" speed="20.00" length="28.49" width="3.75" shape="134.28,-12.63 130.48,-41.63"/>
        <lane id="1_sub_0_1" index="1" allow="private emergency authority army vip passenger hov taxi bus coach delivery truck trailer evehicle custom1 custom2" speed="20.00" length="28.49" width="3.75" shape="138.00,-13.12 134.40,-40.62"/>
    </edge>
    <edge id="1_sub_1" from="J31" to="J29" priority="-1" shape="135.90,-43.59 131.78,-45.73 129.44,-52.24 120.54,-67.25">
        <lane id="1_sub_1_0" index="0" allow="private emergency authority army vip passenger hov taxi bus coach delivery truck trailer evehicle custom1 custom2" speed="20.00" length="0.46" shape="129.94,-46.11 129.79,-46.54"/>
    </edge>
    <edge id="1_sub_2" from="J31" to="J1" priority="-1" shape="135.90,-43.59 135.85,-53.90 144.48,-61.07">
        <lane id="1_sub_2_0" index="0" speed="20.00" length="0.12" shape="134.29,-45.08 134.29,-45.21"/>
    </edge>
    <edge id="2_main_0" from="J21" to="J20" priority="-1">
        <lane id="2_main_0_0" index="0" disallow="pedestrian tram rail_urban rail rail_electric rail_fast ship" speed="20.00" length="33.38" width="3.60" shape="58.38,-111.60 87.44,-95.21"/>
        <lane id="2_main_0_1" index="1" disallow="pedestrian tram rail_urban rail rail_electric rail_fast ship" speed="20.00" length="33.38" width="3.60" shape="56.61,-108.47 85.70,-92.06"/>
    </edge>
    <edge id="2_main_1" from="J20" to="J0" priority="-1" shape="88.38,-88.48 122.29,-70.84 129.38,-67.66">
        <lane id="2_main_1_0" index="0" allow="private emergency authority army vip passenger hov taxi bus coach delivery truck trailer evehicle custom1 custom2" speed="20.00" length="20.31" width="3.60" shape="109.50,-83.58 124.64,-75.70 127.14,-74.58"/>
        <lane id="2_main_1_1" index="1" allow="private emergency authority army vip passenger hov taxi bus coach delivery truck trailer evehicle custom1 custom2" speed="20.00" length="20.31" width="3.60" shape="107.94,-80.33 123.07,-72.46 126.51,-70.92"/>
    </edge>
    <edge id="2_main_2" from="J0" to="J1" priority="-1">
        <lane id="2_main_2_0" index="0" allow="private emergency authority army vip passenger hov taxi bus coach delivery truck trailer evehicle custom1 custom2" speed="20.00" length="0.20" width="3.60" shape="142.37,-67.88 142.56,-67.80"/>
        <lane id="2_main_2_1" index="1" allow="private emergency authority army vip passenger hov taxi bus coach delivery truck trailer evehicle custom1 custom2" speed="20.00" length="0.20" width="3.60" shape="141.76,-64.22 141.94,-64.14"/>
    </edge>
    <edge id="2_main_3" from="J1" to="J38" priority="-1" shape="144.48,-61.07 162.36,-53.14 185.22,-44.16">
        <lane id="2_main_3_0" index="0" allow="private emergency authority army vip passenger hov taxi bus coach delivery truck trailer evehicle custom1 custom2" speed="20.00" length="30.29" width="3.60" shape="159.26,-60.42 164.44,-58.12 187.19,-49.19"/>
        <lane id="2_main_3_1" index="1" allow="private emergency authority army vip passenger hov taxi bus coach delivery truck trailer evehicle custom1 custom2" speed="20.00" length="30.29" width="3.60" shape="157.62,-57.21 163.05,-54.80 185.88,-45.84"/>
    </edge>
    <edge id="2_sub_0" from="J34" to="J36" priority="-1" shape="142.16,-19.38 142.09,-12.25">
        <lane id="2_sub_0_0" index="0" allow="private emergency authority army vip passenger hov taxi bus coach delivery truck trailer evehicle custom1 custom2" speed="20.00" length="6.30" width="6.70" shape="145.50,-18.52 145.44,-12.22"/>
    </edge>
    <edge id="2_sub_1" from="J0" to="J34" priority="-1" shape="129.38,-67.66 136.00,-59.00 142.00,-48.76 143.00,-42.23 143.00,-34.00 141.97,-19.38">
        <lane id="2_sub_1_0" index="0" speed="20.00" length="0.20" shape="144.04,-46.00 144.07,-45.80"/>
    </edge>
    <edge id="2_sub_2" from="J33" to="J34" priority="-1" shape="165.80,-47.66 156.00,-41.00 152.00,-38.07 141.97,-19.38">
        <lane id="2_sub_2_0" index="0" allow="private emergency authority army vip passenger hov taxi bus coach delivery truck trailer evehicle custom1 custom2" speed="20.00" length="19.53" shape="152.81,-36.20 143.58,-18.99"/>
    </edge>

    <junction id="J0" type="priority" x="129.38" y="-67.66" incLanes="2_main_1_0 2_main_1_1" intLanes=":J0_0_0 :J0_0_1 :J0_2_0" shape="139.15,-51.20 139.23,-48.59 140.78,-43.46 140.96,-39.05 149.37,-36.90 150.80,-46.27 142.71,-69.05 127.44,-76.32 126.15,-68.85 128.01,-66.99 128.70,-65.87 128.01,-64.26" customShape="1">
        <request index="0" response="000" foes="000" cont="0"/>
        <request index="1" response="000" foes="000" cont="0"/>
        <request index="2" response="000" foes="000" cont="0"/>
    </junction>
    <junction id="J1" type="priority" x="144.48" y="-61.07" incLanes="2_main_2_0 2_main_2_1 1_sub_2_0" intLanes=":J1_0_0 :J1_0_1 :J1_2_0" shape="131.88,-45.89 136.95,-44.46 137.80,-46.16 139.23,-48.59 139.15,-51.20 151.92,-53.64 154.31,-54.87 156.61,-55.25 160.16,-62.18 142.71,-69.15 132.81,-60.00 130.94,-55.00" customShape="1">
        <request index="0" response="000" foes="100" cont="0"/>
        <request index="1" response="000" foes="100" cont="0"/>
        <request index="2" response="011" foes="011" cont="0"/>
    </junction>
    <junction id="J20" type="priority" x="88.38" y="-88.48" incLanes="1_main_2_0 1_main_2_1 2_main_0_0 2_main_0_1" intLanes=":J20_0_0 :J20_0_1 :J20_0_2 :J20_3_0 :J20_3_1" shape="79.68,-81.14 103.14,-68.55 105.90,-74.73 102.03,-77.39 99.38,-79.30 97.19,-81.09 95.00,-82.97 92.97,-84.69 88.38,-88.48 107.21,-78.80 110.27,-85.20 88.35,-96.86" customShape="1">
        <request index="0" response="00000" foes="00000" cont="0"/>
        <request index="1" response="00000" foes="00000" cont="0"/>
        <request index="2" response="00000" foes="00000" cont="0"/>
        <request index="3" response="00000" foes="00000" cont="0"/>
        <request index="4" response="00000" foes="00000" cont="0"/>
    </junction>
    <junction id="J21" type="dead_end" x="55.73" y="-106.90" incLanes="1_main_3_0 1_main_3_1 1_main_3_2" intLanes="" shape="55.73,-106.90 50.42,-97.49 55.73,-106.90"/>
    <junction id="J29" type="priority" x="120.54" y="-67.25" incLanes="1_sub_1_0 1_main_1_0 1_main_1_1" intLanes=":J29_0_0 :J29_1_0 :J29_1_1" shape="128.75,-65.00 127.50,-63.91 119.08,-67.97 115.60,-61.67 118.97,-59.97 122.25,-57.03 125.19,-53.41 128.12,-47.06 131.88,-45.89 130.94,-55.00 132.81,-60.00" customShape="1">
        <request index="0" response="110" foes="110" cont="0"/>
        <request index="1" response="000" foes="001" cont="0"/>
        <request index="2" response="000" foes="001" cont="0"/>
    </junction>
    <junction id="J31" type="priority" x="135.90" y="-43.59" incLanes="1_sub_0_0 1_sub_0_1" intLanes=":J31_0_0 :J31_1_0" shape="128.76,-42.07 136.75,-40.02 136.95,-44.46 128.02,-46.56" customShape="1">
        <request index="0" response="00" foes="00" cont="0"/>
        <request index="1" response="00" foes="00" cont="0"/>
    </junction>
    <junction id="J33" type="priority" x="165.80" y="-47.66" incLanes="1_main_0_0 1_main_0_1" intLanes=":J33_0_0 :J33_1_0 :J33_1_1" shape="149.37,-36.90 155.81,-35.59 157.66,-36.96 161.53,-38.45 165.65,-38.87 169.58,-38.45 165.80,-47.66 153.72,-52.75 150.80,-46.27" customShape="1">
        <request index="0" response="000" foes="000" cont="0"/>
        <request index="1" response="000" foes="000" cont="0"/>
        <request index="2" response="000" foes="000" cont="0"/>
    </junction>
    <junction id="J34" type="priority" x="141.97" y="-19.38" incLanes="2_sub_2_0 2_sub_1_0" intLanes=":J34_0_0 :J34_1_0" shape="141.96,-19.38 148.89,-17.70 149.13,-20.68 149.73,-24.56 150.68,-28.61 152.77,-32.91 155.63,-35.59 140.96,-39.05" customShape="1">
        <request index="0" response="10" foes="10" cont="0"/>
        <request index="1" response="00" foes="01" cont="0"/>
    </junction>
    <junction id="J35" type="dead_end" x="139.86" y="-13.36" incLanes="" intLanes="" shape="139.86,-13.36 132.42,-12.39"/>
    <junction id="J36" type="dead_end" x="142.09" y="-12.25" incLanes="2_sub_0_0" intLanes="" shape="148.79,-12.18 142.09,-12.25"/>
    <junction id="J37" type="dead_end" x="183.23" y="-40.87" incLanes="" intLanes="" shape="183.23,-40.87 180.62,-34.16"/>
    <junction id="J38" type="dead_end" x="185.22" y="-44.16" incLanes="2_main_3_0 2_main_3_1" intLanes="" shape="187.85,-50.86 185.22,-44.16"/>

    <connection from="1_main_0" to="2_sub_2" fromLane="0" toLane="0" via=":J33_0_0" dir="r" state="M"/>
    <connection from="1_main_0" to="1_main_1" fromLane="0" toLane="0" via=":J33_1_0" dir="s" state="M"/>
    <connection from="1_main_0" to="1_main_1" fromLane="1" toLane="1" via=":J33_1_1" dir="s" state="M"/>
    <connection from="1_main_1" to="1_main_2" fromLane="0" toLane="0" via=":J29_1_0" dir="s" state="M"/>
    <connection from="1_main_1" to="1_main_2" fromLane="1" toLane="1" via=":J29_1_1" dir="s" state="M"/>
    <connection from="1_main_2" to="1_main_3" fromLane="0" toLane="0" via=":J20_0_0" dir="s" state="M"/>
    <connection from="1_main_2" to="1_main_3" fromLane="1" toLane="1" via=":J20_0_1" dir="s" state="M"/>
    <connection from="1_main_2" to="1_main_3" fromLane="1" toLane="2" via=":J20_0_2" dir="s" state="M"/>
    <connection from="1_sub_0" to="1_sub_1" fromLane="0" toLane="0" via=":J31_0_0" dir="r" state="M"/>
    <connection from="1_sub_0" to="1_sub_2" fromLane="1" toLane="0" via=":J31_1_0" dir="s" state="M"/>
    <connection from="1_sub_1" to="1_main_2" fromLane="0" toLane="0" via=":J29_0_0" dir="s" state="m"/>
    <connection from="1_sub_2" to="2_main_3" fromLane="0" toLane="1" via=":J1_2_0" dir="l" state="m"/>
    <connection from="2_main_0" to="2_main_1" fromLane="0" toLane="0" via=":J20_3_0" dir="s" state="M"/>
    <connection from="2_main_0" to="2_main_1" fromLane="1" toLane="1" via=":J20_3_1" dir="s" state="M"/>
    <connection from="2_main_1" to="2_main_2" fromLane="0" toLane="0" via=":J0_0_0" dir="s" state="M"/>
    <connection from="2_main_1" to="2_main_2" fromLane="1" toLane="1" via=":J0_0_1" dir="s" state="M"/>
    <connection from="2_main_1" to="2_sub_1" fromLane="1" toLane="0" via=":J0_2_0" dir="L" state="M"/>
    <connection from="2_main_2" to="2_main_3" fromLane="0" toLane="0" via=":J1_0_0" dir="s" state="M"/>
    <connection from="2_main_2" to="2_main_3" fromLane="1" toLane="1" via=":J1_0_1" dir="s" state="M"/>
    <connection from="2_sub_1" to="2_sub_0" fromLane="0" toLane="0" via=":J34_1_0" dir="s" state="M"/>
    <connection from="2_sub_2" to="2_sub_0" fromLane="0" toLane="0" via=":J34_0_0" dir="s" state="m"/>

    <connection from=":J0_0" to="2_main_2" fromLane="0" toLane="0" dir="s" state="M"/>
    <connection from=":J0_0" to="2_main_2" fromLane="1" toLane="1" dir="s" state="M"/>
    <connection from=":J0_2" to="2_sub_1" fromLane="0" toLane="0" dir="L" state="M"/>
    <connection from=":J1_0" to="2_main_3" fromLane="0" toLane="0" dir="s" state="M"/>
    <connection from=":J1_0" to="2_main_3" fromLane="1" toLane="1" dir="s" state="M"/>
    <connection from=":J1_2" to="2_main_3" fromLane="0" toLane="1" dir="l" state="M"/>
    <connection from=":J20_0" to="1_main_3" fromLane="0" toLane="0" dir="s" state="M"/>
    <connection from=":J20_0" to="1_main_3" fromLane="1" toLane="1" dir="s" state="M"/>
    <connection from=":J20_0" to="1_main_3" fromLane="2" toLane="2" dir="s" state="M"/>
    <connection from=":J20_3" to="2_main_1" fromLane="0" toLane="0" dir="s" state="M"/>
    <connection from=":J20_3" to="2_main_1" fromLane="1" toLane="1" dir="s" state="M"/>
    <connection from=":J29_0" to="1_main_2" fromLane="0" toLane="0" dir="s" state="M"/>
    <connection from=":J29_1" to="1_main_2" fromLane="0" toLane="0" dir="s" state="M"/>
    <connection from=":J29_1" to="1_main_2" fromLane="1" toLane="1" dir="s" state="M"/>
    <connection from=":J31_0" to="1_sub_1" fromLane="0" toLane="0" dir="r" state="M"/>
    <connection from=":J31_1" to="1_sub_2" fromLane="0" toLane="0" dir="s" state="M"/>
    <connection from=":J33_0" to="2_sub_2" fromLane="0" toLane="0" dir="r" state="M"/>
    <connection from=":J33_1" to="1_main_1" fromLane="0" toLane="0" dir="s" state="M"/>
    <connection from=":J33_1" to="1_main_1" fromLane="1" toLane="1" dir="s" state="M"/>
    <connection from=":J34_0" to="2_sub_0" fromLane="0" toLane="0" dir="s" state="M"/>
    <connection from=":J34_1" to="2_sub_0" fromLane="0" toLane="0" dir="s" state="M"/>

</net>
