<routes>

    <route id="01" edges="in_01 in_0 round_01 out_1 out_11" />
    <route id="02" edges="in_01 in_0 round_01 round_11 round_12 out_2 out_21" />
    <route id="03" edges="in_01 in_0 round_01 round_11 round_12 round_22 round_23 out_3 out_31" />
    <route id="00" edges="in_01 in_0 round_01 round_11 round_12 round_22 round_23  round_33 round_30 out_0 out_01" />

    <route id="12" edges="in_11 in_1 round_12 out_2 out_21" />
    <route id="13" edges="in_11 in_1 round_12 round_22 round_23 out_3 out_31" />
    <route id="10" edges="in_11 in_1 round_12 round_22 round_23 round_33 round_30 out_0 out_01" />
    <route id="11" edges="in_11 in_1 round_12 round_22 round_23 round_33 round_30 round_00 round_01 out_1 out_11" />

    <route id="23" edges="in_21 in_2 round_23 out_3 out_31" />
    <route id="20" edges="in_21 in_2 round_23 round_33 round_30 out_0 out_01" />
    <route id="21" edges="in_21 in_2 round_23 round_33 round_30 round_00 round_01 out_1 out_11" />
    <route id="22" edges="in_21 in_2 round_23 round_33 round_30 round_00 round_01 round_11 round_12 out_2 out_21" />

    <route id="30" edges="in_31 in_3 round_30 out_0 out_01" />
    <route id="31" edges="in_31 in_3 round_30 round_00 round_01 out_1 out_11" />
    <route id="32" edges="in_31 in_3 round_30 round_00 round_01 round_11 round_12 out_2 out_21" />
    <route id="33" edges="in_31 in_3 round_30 round_00 round_01 round_11 round_12 round_22 round_23 out_3 out_31" />

</routes>