<?xml version="1.0" encoding="UTF-8"?>

<!-- generated on 2021-12-14 23:24:27 by Eclipse SUMO netedit Version v1_11_0+0041-46d25eca05a
<configuration xmlns:xsi="http://www.w3.org/2001/XMLSchema-instance" xsi:noNamespaceSchemaLocation="http://sumo.dlr.de/xsd/netconvertConfiguration.xsd">

    <input>
        <sumo-net-file value="/data/HighD_Sim/inD/map_SUMO/inD_2.net.xml"/>
    </input>

    <output>
        <output-file value="/data/HighD_Sim/inD/map_SUMO/inD_2.net.xml"/>
    </output>

    <processing>
        <geometry.min-radius.fix.railways value="false"/>
        <geometry.max-grade.fix value="false"/>
        <offset.disable-normalization value="true"/>
        <lefthand value="false"/>
    </processing>

    <junctions>
        <no-turnarounds value="true"/>
        <junctions.corner-detail value="5"/>
        <junctions.limit-turn-speed value="5.5"/>
        <rectangular-lane-cut value="false"/>
    </junctions>

    <pedestrian>
        <walkingareas value="false"/>
    </pedestrian>

    <report>
        <aggregate-warnings value="5"/>
    </report>

</configuration>
-->

<net version="1.9" junctionCornerDetail="5" limitTurnSpeed="5.50" xmlns:xsi="http://www.w3.org/2001/XMLSchema-instance" xsi:noNamespaceSchemaLocation="http://sumo.dlr.de/xsd/net_file.xsd">

    <location netOffset="-295557.06,-5627970.51" convBoundary="28.01,-61.69,79.61,-1.21" origBoundary="6.100416,50.764540,6.104525,50.769408" projParameter="+proj=utm +zone=32 +ellps=WGS84 +datum=WGS84 +units=m +no_defs"/>

    <edge id=":J1_0" function="internal">
        <lane id=":J1_0_0" index="0" disallow="pedestrian tram rail_urban rail rail_electric rail_fast ship" speed="20.00" length="17.20" width="3.50" shape="63.80,-20.70 60.24,-24.41 56.70,-25.87 53.19,-25.09 49.69,-22.05"/>
    </edge>
    <edge id=":J1_1" function="internal">
        <lane id=":J1_1_0" index="0" disallow="pedestrian tram rail_urban rail rail_electric rail_fast ship" speed="20.00" length="25.34" width="5.40" shape="63.80,-20.70 60.42,-24.87 55.62,-30.38 50.69,-35.77 46.91,-39.58"/>
    </edge>
    <edge id=":J1_2" function="internal">
        <lane id=":J1_2_0" index="0" disallow="pedestrian tram rail_urban rail rail_electric rail_fast ship" speed="20.00" length="24.55" width="3.20" shape="63.80,-20.70 59.61,-27.48 57.67,-33.48 57.96,-38.67 60.50,-43.08"/>
    </edge>
    <edge id=":J1_3" function="internal">
        <lane id=":J1_3_0" index="0" disallow="pedestrian tram rail_urban rail rail_electric rail_fast ship" speed="20.00" length="12.64" width="4.70" shape="63.64,-37.47 62.07,-34.96 61.75,-32.23 62.67,-29.28 64.84,-26.10"/>
    </edge>
    <edge id=":J1_4" function="internal">
        <lane id=":J1_4_0" index="0" disallow="pedestrian tram rail_urban rail rail_electric rail_fast ship" speed="20.00" length="20.78" width="3.50" shape="63.64,-37.47 49.69,-22.05"/>
    </edge>
    <edge id=":J1_5" function="internal">
        <lane id=":J1_5_0" index="0" disallow="pedestrian tram rail_urban rail rail_electric rail_fast ship" speed="20.00" length="6.46" width="5.40" shape="62.09,-40.23 58.43,-37.21 56.79,-36.72"/>
    </edge>
    <edge id=":J1_12" function="internal">
        <lane id=":J1_12_0" index="0" disallow="pedestrian tram rail_urban rail rail_electric rail_fast ship" speed="20.00" length="10.88" width="5.40" shape="56.79,-36.72 54.68,-36.10 50.84,-36.89 46.91,-39.58"/>
    </edge>
    <edge id=":J1_6" function="internal">
        <lane id=":J1_6_0" index="0" disallow="pedestrian tram rail_urban rail rail_electric rail_fast ship" speed="20.00" length="11.45" width="3.20" shape="50.44,-43.60 53.22,-41.59 55.83,-40.84 58.25,-41.34 60.50,-43.08"/>
    </edge>
    <edge id=":J1_7" function="internal">
        <lane id=":J1_7_0" index="0" disallow="pedestrian tram rail_urban rail rail_electric rail_fast ship" speed="20.00" length="22.67" width="4.70" shape="50.44,-43.60 53.79,-39.98 57.81,-35.01 61.74,-29.97 64.84,-26.10"/>
    </edge>
    <edge id=":J1_8" function="internal">
        <lane id=":J1_8_0" index="0" disallow="pedestrian tram rail_urban rail rail_electric rail_fast ship" speed="20.00" length="24.28" width="3.50" shape="50.44,-43.60 54.07,-38.89 55.15,-33.73 53.69,-28.12 49.69,-22.05"/>
    </edge>
    <edge id=":J1_9" function="internal">
        <lane id=":J1_9_0" index="0" disallow="pedestrian tram rail_urban rail rail_electric rail_fast ship" speed="20.00" length="13.05" width="5.40" shape="46.52,-28.00 48.67,-31.26 49.45,-34.27 48.86,-37.05 46.91,-39.58"/>
    </edge>
    <edge id=":J1_10" function="internal">
        <lane id=":J1_10_0" index="0" disallow="pedestrian tram rail_urban rail rail_electric rail_fast ship" speed="20.00" length="20.56" width="3.20" shape="46.52,-28.00 60.50,-43.08"/>
    </edge>
    <edge id=":J1_11" function="internal">
        <lane id=":J1_11_0" index="0" disallow="pedestrian tram rail_urban rail rail_electric rail_fast ship" speed="20.00" length="7.98" width="4.70" shape="48.04,-25.15 52.37,-29.12 54.35,-29.81"/>
    </edge>
    <edge id=":J1_13" function="internal">
        <lane id=":J1_13_0" index="0" disallow="pedestrian tram rail_urban rail rail_electric rail_fast ship" speed="20.00" length="12.04" width="4.70" shape="54.35,-29.81 56.62,-30.61 60.77,-29.60 64.84,-26.10"/>
    </edge>

    <edge id="1_main_0" from="J0" to="J1" priority="-1" shape="28.01,-1.21 30.98,-3.70 48.20,-23.00 51.15,-26.52 54.81,-34.29">
        <lane id="1_main_0_0" index="0" disallow="pedestrian tram rail_urban rail rail_electric rail_fast ship" speed="20.00" length="31.36" width="3.00" shape="25.12,-4.66 27.84,-6.94 44.80,-25.94 46.52,-28.00"/>
        <lane id="1_main_0_1" index="1" disallow="pedestrian tram rail_urban rail rail_electric rail_fast ship" speed="20.00" length="31.36" width="3.00" shape="27.05,-2.36 29.93,-4.78 47.07,-23.98 48.04,-25.15"/>
    </edge>
    <edge id="1_main_1" from="J1" to="J3" priority="-1" shape="54.81,-34.29 59.00,-39.06 79.61,-61.69">
        <lane id="1_main_1_0" index="0" disallow="pedestrian tram rail_urban rail rail_electric rail_fast ship" speed="20.00" length="26.63" width="3.20" shape="60.50,-43.08 78.43,-62.77"/>
    </edge>
    <edge id="1_sub_0" from="J1" to="J5" priority="-1">
        <lane id="1_sub_0_0" index="0" disallow="pedestrian tram rail_urban rail rail_electric rail_fast ship" speed="20.00" length="9.54" width="4.70" shape="64.84,-26.10 71.01,-18.83"/>
    </edge>
    <edge id="1_sub_1" from="J5" to="J1" priority="-1" shape="69.22,-17.31 64.40,-23.84 54.81,-34.29">
        <lane id="1_sub_1_0" index="0" disallow="pedestrian tram rail_urban rail rail_electric rail_fast ship" speed="20.00" length="5.95" width="4.70" shape="67.33,-15.91 63.80,-20.70"/>
    </edge>
    <edge id="2_main_0" from="J3" to="J1" priority="-1" shape="79.61,-61.69 59.00,-39.06 54.81,-34.29">
        <lane id="2_main_0_0" index="0" disallow="pedestrian tram rail_urban rail rail_electric rail_fast ship" speed="20.00" length="28.17" width="3.00" shape="82.94,-58.66 63.64,-37.47"/>
        <lane id="2_main_0_1" index="1" disallow="pedestrian tram rail_urban rail rail_electric rail_fast ship" speed="20.00" length="28.17" width="3.00" shape="80.72,-60.68 62.09,-40.23"/>
    </edge>
    <edge id="2_main_1" from="J1" to="J0" priority="-1" shape="54.81,-34.29 51.15,-26.52 48.20,-23.00 30.98,-3.93 28.01,-1.21">
        <lane id="2_main_1_0" index="0" disallow="pedestrian tram rail_urban rail rail_electric rail_fast ship" speed="20.00" length="30.19" width="3.50" shape="49.69,-22.05 49.52,-21.85 32.22,-2.70 29.19,0.08"/>
    </edge>
    <edge id="2_sub_0" from="J1" to="J4" priority="-1" shape="54.81,-34.29 53.06,-37.61 41.02,-48.63">
        <lane id="2_sub_0_0" index="0" disallow="pedestrian tram rail_urban rail rail_electric rail_fast ship" speed="20.00" length="10.46" width="5.40" shape="46.91,-39.58 39.20,-46.64"/>
    </edge>
    <edge id="2_sub_1" from="J4" to="J1" priority="-1" shape="41.02,-48.63 53.06,-37.61 54.81,-34.29">
        <lane id="2_sub_1_0" index="0" disallow="pedestrian tram rail_urban rail rail_electric rail_fast ship" speed="20.00" length="10.35" width="5.30" shape="42.81,-50.58 50.44,-43.60"/>
    </edge>

    <junction id="J0" type="dead_end" x="28.01" y="-1.21" incLanes="2_main_1_0" intLanes="" shape="28.01,-1.21 24.16,-5.81 30.37,1.37"/>
    <junction id="J1" type="priority" x="54.81" y="-34.29" incLanes="1_sub_1_0 2_main_0_0 2_main_0_1 2_sub_1_0 1_main_0_0 1_main_0_1" intLanes=":J1_0_0 :J1_1_0 :J1_2_0 :J1_3_0 :J1_4_0 :J1_12_0 :J1_6_0 :J1_7_0 :J1_8_0 :J1_9_0 :J1_10_0 :J1_13_0" shape="50.59,-20.37 53.29,-21.35 56.14,-21.53 58.92,-20.86 61.16,-19.84 63.21,-17.66 65.45,-29.27 64.00,-31.21 63.76,-32.96 63.94,-34.53 64.50,-35.92 59.65,-44.59 58.38,-43.85 55.83,-43.24 53.66,-43.97 52.15,-45.54 44.71,-37.07 45.92,-35.26 46.58,-32.36 45.78,-29.38" customShape="1">
        <request index="0"  response="000000010000" foes="000100010000" cont="0"/>
        <request index="1"  response="111000110000" foes="111100110000" cont="0"/>
        <request index="2"  response="110011110000" foes="110011110000" cont="0"/>
        <request index="3"  response="000000000000" foes="100010000000" cont="0"/>
        <request index="4"  response="000000000000" foes="100110000111" cont="0"/>
        <request index="5"  response="011000000000" foes="011110000110" cont="1"/>
        <request index="6"  response="010000000000" foes="010000000100" cont="0"/>
        <request index="7"  response="110000111000" foes="110000111100" cont="0"/>
        <request index="8"  response="110000110011" foes="110000110011" cont="0"/>
        <request index="9"  response="000000000000" foes="000000100010" cont="0"/>
        <request index="10" response="000000000000" foes="000111100110" cont="0"/>
        <request index="11" response="000000011000" foes="000110011110" cont="1"/>
    </junction>
    <junction id="J3" type="dead_end" x="79.61" y="-61.69" incLanes="1_main_1_0" intLanes="" shape="79.61,-61.69 77.24,-63.84 79.61,-61.69"/>
    <junction id="J4" type="dead_end" x="41.02" y="-48.63" incLanes="2_sub_0_0" intLanes="" shape="41.02,-48.63 37.37,-44.65 41.02,-48.63"/>
    <junction id="J5" type="dead_end" x="69.22" y="-17.31" incLanes="1_sub_0_0" intLanes="" shape="69.22,-17.31 65.44,-14.52 72.80,-20.35"/>

    <junction id=":J1_12_0" type="internal" x="56.79" y="-36.72" incLanes=":J1_5_0 1_main_0_0" intLanes=":J1_1_0 :J1_2_0 :J1_7_0 :J1_8_0 :J1_9_0 :J1_10_0"/>
    <junction id=":J1_13_0" type="internal" x="54.35" y="-29.81" incLanes=":J1_11_0 2_main_0_0" intLanes=":J1_1_0 :J1_2_0 :J1_3_0 :J1_4_0 :J1_7_0 :J1_8_0"/>

    <connection from="1_main_0" to="2_sub_0" fromLane="0" toLane="0" via=":J1_9_0" dir="r" state="M"/>
    <connection from="1_main_0" to="1_main_1" fromLane="0" toLane="0" via=":J1_10_0" dir="s" state="M"/>
    <connection from="1_main_0" to="1_sub_0" fromLane="1" toLane="0" via=":J1_11_0" dir="l" state="m"/>
    <connection from="1_sub_1" to="2_main_1" fromLane="0" toLane="0" via=":J1_0_0" dir="r" state="m"/>
    <connection from="1_sub_1" to="2_sub_0" fromLane="0" toLane="0" via=":J1_1_0" dir="s" state="m"/>
    <connection from="1_sub_1" to="1_main_1" fromLane="0" toLane="0" via=":J1_2_0" dir="l" state="m"/>
    <connection from="2_main_0" to="1_sub_0" fromLane="0" toLane="0" via=":J1_3_0" dir="r" state="M"/>
    <connection from="2_main_0" to="2_main_1" fromLane="0" toLane="0" via=":J1_4_0" dir="s" state="M"/>
    <connection from="2_main_0" to="2_sub_0" fromLane="1" toLane="0" via=":J1_5_0" dir="l" state="m"/>
    <connection from="2_sub_1" to="1_main_1" fromLane="0" toLane="0" via=":J1_6_0" dir="r" state="m"/>
    <connection from="2_sub_1" to="1_sub_0" fromLane="0" toLane="0" via=":J1_7_0" dir="s" state="m"/>
    <connection from="2_sub_1" to="2_main_1" fromLane="0" toLane="0" via=":J1_8_0" dir="l" state="m"/>

    <connection from=":J1_0" to="2_main_1" fromLane="0" toLane="0" dir="r" state="M"/>
    <connection from=":J1_1" to="2_sub_0" fromLane="0" toLane="0" dir="s" state="M"/>
    <connection from=":J1_2" to="1_main_1" fromLane="0" toLane="0" dir="l" state="M"/>
    <connection from=":J1_3" to="1_sub_0" fromLane="0" toLane="0" dir="r" state="M"/>
    <connection from=":J1_4" to="2_main_1" fromLane="0" toLane="0" dir="s" state="M"/>
    <connection from=":J1_5" to="2_sub_0" fromLane="0" toLane="0" via=":J1_12_0" dir="l" state="m"/>
    <connection from=":J1_12" to="2_sub_0" fromLane="0" toLane="0" dir="l" state="M"/>
    <connection from=":J1_6" to="1_main_1" fromLane="0" toLane="0" dir="r" state="M"/>
    <connection from=":J1_7" to="1_sub_0" fromLane="0" toLane="0" dir="s" state="M"/>
    <connection from=":J1_8" to="2_main_1" fromLane="0" toLane="0" dir="l" state="M"/>
    <connection from=":J1_9" to="2_sub_0" fromLane="0" toLane="0" dir="r" state="M"/>
    <connection from=":J1_10" to="1_main_1" fromLane="0" toLane="0" dir="s" state="M"/>
    <connection from=":J1_11" to="1_sub_0" fromLane="0" toLane="0" via=":J1_13_0" dir="l" state="m"/>
    <connection from=":J1_13" to="1_sub_0" fromLane="0" toLane="0" dir="l" state="M"/>

</net>
